<?xml version='1.0' encoding='UTF-8'?>
<configuration xmlns:xsi="http://www.w3.org/2001/XMLSchema-instance" xsi:noNamespaceSchemaLocation="http://sumo.dlr.de/xsd/sumoConfiguration.xsd">
  <input>
    <net-file value="green_wave_20190821-1530131566381613.06954.net.xml"/>
    <route-files value="green_wave_20190821-1530131566381613.06954.rou.xml"/>
    <additional-files value="green_wave_20190821-1530131566381613.06954.add.xml"/>
    <gui-settings-file value="green_wave_20190821-1530131566381613.06954.gui.cfg"/>
  </input>
  <time>
    <begin value="0"/>
  </time>
</configuration>
