<?xml version='1.0' encoding='UTF-8'?>
<routes xmlns:xsi="http://www.w3.org/2001/XMLSchema-instance" xsi:noNamespaceSchemaLocation="http://sumo.dlr.de/xsd/routes_file.xsd">
  <route edges="bot0_0 bot0_1 bot0_2 bot0_3" id="routebot0_0_0"/>
  <route edges="top0_3 top0_2 top0_1 top0_0" id="routetop0_3_0"/>
  <route edges="bot1_0 bot1_1 bot1_2 bot1_3" id="routebot1_0_0"/>
  <route edges="top1_3 top1_2 top1_1 top1_0" id="routetop1_3_0"/>
  <route edges="bot2_0 bot2_1 bot2_2 bot2_3" id="routebot2_0_0"/>
  <route edges="top2_3 top2_2 top2_1 top2_0" id="routetop2_3_0"/>
  <route edges="left3_0 left2_0 left1_0 left0_0" id="routeleft3_0_0"/>
  <route edges="right0_0 right1_0 right2_0 right3_0" id="routeright0_0_0"/>
  <route edges="left3_1 left2_1 left1_1 left0_1" id="routeleft3_1_0"/>
  <route edges="right0_1 right1_1 right2_1 right3_1" id="routeright0_1_0"/>
  <route edges="left3_2 left2_2 left1_2 left0_2" id="routeleft3_2_0"/>
  <route edges="right0_2 right1_2 right2_2 right3_2" id="routeright0_2_0"/>
  <flow begin="1" departLane="free" departSpeed="10" end="86400" id="flow_00" probability="0.25" route="routeleft3_0_0" type="idm"/>
  <flow begin="1" departLane="free" departSpeed="10" end="86400" id="flow_10" probability="0.25" route="routeright0_0_0" type="idm"/>
  <flow begin="1" departLane="free" departSpeed="10" end="86400" id="flow_20" probability="0.25" route="routeleft3_1_0" type="idm"/>
  <flow begin="1" departLane="free" departSpeed="10" end="86400" id="flow_30" probability="0.25" route="routeright0_1_0" type="idm"/>
  <flow begin="1" departLane="free" departSpeed="10" end="86400" id="flow_40" probability="0.25" route="routeleft3_2_0" type="idm"/>
  <flow begin="1" departLane="free" departSpeed="10" end="86400" id="flow_50" probability="0.25" route="routeright0_2_0" type="idm"/>
  <flow begin="1" departLane="free" departSpeed="10" end="86400" id="flow_60" probability="0.25" route="routebot0_0_0" type="idm"/>
  <flow begin="1" departLane="free" departSpeed="10" end="86400" id="flow_70" probability="0.25" route="routetop0_3_0" type="idm"/>
  <flow begin="1" departLane="free" departSpeed="10" end="86400" id="flow_80" probability="0.25" route="routebot1_0_0" type="idm"/>
  <flow begin="1" departLane="free" departSpeed="10" end="86400" id="flow_90" probability="0.25" route="routetop1_3_0" type="idm"/>
  <flow begin="1" departLane="free" departSpeed="10" end="86400" id="flow_100" probability="0.25" route="routebot2_0_0" type="idm"/>
  <flow begin="1" departLane="free" departSpeed="10" end="86400" id="flow_110" probability="0.25" route="routetop2_3_0" type="idm"/>
</routes>
