<?xml version='1.0' encoding='UTF-8'?>
<configuration xmlns:xsi="http://www.w3.org/2001/XMLSchema-instance" xsi:noNamespaceSchemaLocation="http://sumo.dlr.de/xsd/sumoConfiguration.xsd">
  <input>
    <net-file value="green_wave_20190814-1326061565769366.117634.net.xml"/>
    <route-files value="green_wave_20190814-1326061565769366.117634.rou.xml"/>
    <additional-files value="green_wave_20190814-1326061565769366.117634.add.xml"/>
    <gui-settings-file value="green_wave_20190814-1326061565769366.117634.gui.cfg"/>
  </input>
  <time>
    <begin value="0"/>
  </time>
</configuration>
