<?xml version='1.0' encoding='UTF-8'?>
<configuration xmlns:xsi="http://www.w3.org/2001/XMLSchema-instance" xsi:noNamespaceSchemaLocation="http://sumo.dlr.de/xsd/sumoConfiguration.xsd">
  <input>
    <net-file value="green_wave_20190814-1326161565769376.492231.net.xml"/>
    <route-files value="green_wave_20190814-1326161565769376.492231.rou.xml"/>
    <additional-files value="green_wave_20190814-1326161565769376.492231.add.xml"/>
    <gui-settings-file value="green_wave_20190814-1326161565769376.492231.gui.cfg"/>
  </input>
  <time>
    <begin value="0"/>
  </time>
</configuration>
